  
       XFOIL         Version 6.99
  
 Calculated polar for: S813                                            
  
 1 1 Reynolds number fixed          Mach number fixed         
  
 xtrf =   1.000 (top)        1.000 (bottom)  
 Mach =   0.000     Re =     0.100 e 6     Ncrit =   9.000
  
   alpha    CL        CD       CDp       CM     Top_Xtr  Bot_Xtr
  ------ -------- --------- --------- -------- -------- --------
 -10.000  -0.6503   0.06955   0.06431  -0.0847   0.9568   0.0757
  -8.000  -0.6679   0.04327   0.03551  -0.0639   0.9233   0.0597
   0.000  -0.3619   0.03387   0.02694   0.0330   0.9657   0.9330
   2.000  -0.0314   0.04183   0.03428  -0.0020   0.9174   0.9808
   6.000   0.4545   0.04773   0.04048  -0.0235   0.6923   1.0000
   8.000   0.7698   0.04022   0.03413  -0.0298   0.6026   1.0000
  10.000   0.9364   0.03377   0.02567  -0.0123   0.1745   1.0000
