  
       XFOIL         Version 6.99
  
 Calculated polar for: S813                                            
  
 1 1 Reynolds number fixed          Mach number fixed         
  
 xtrf =   1.000 (top)        1.000 (bottom)  
 Mach =   0.000     Re =     0.100 e 6     Ncrit =   9.000
  
   alpha    CL        CD       CDp       CM     Top_Xtr  Bot_Xtr
  ------ -------- --------- --------- -------- -------- --------
 -10.000  -0.6503   0.06955   0.06431  -0.0847   0.9568   0.0757
  -5.000  -0.5026   0.02795   0.02034  -0.0420   0.9020   0.2594
   0.000  -0.3619   0.03387   0.02694   0.0330   0.9657   0.9330
   5.000   0.3315   0.04664   0.03914  -0.0194   0.7380   1.0000
  10.000   0.9364   0.03377   0.02567  -0.0123   0.1745   1.0000
