  
       XFOIL         Version 6.99
  
 Calculated polar for: S813                                            
  
 1 1 Reynolds number fixed          Mach number fixed         
  
 xtrf =   1.000 (top)        1.000 (bottom)  
 Mach =   0.000     Re =     0.200 e 6     Ncrit =   9.000
  
   alpha    CL        CD       CDp       CM     Top_Xtr  Bot_Xtr
  ------ -------- --------- --------- -------- -------- --------
 -10.000  -0.5877   0.03648   0.03013  -0.1014   0.8879   0.0316
  -8.000  -0.4349   0.02365   0.01576  -0.0953   0.8567   0.0411
   2.000   0.2967   0.02644   0.02037  -0.0413   0.7462   0.8496
   6.000   0.7636   0.02233   0.01719  -0.0442   0.6763   0.9074
   8.000   0.9878   0.01516   0.01059  -0.0384   0.5217   0.9685
  10.000   0.9639   0.02977   0.02230  -0.0171   0.0966   1.0000
