  
       XFOIL         Version 6.99
  
 Calculated polar for: S813                                            
  
 1 1 Reynolds number fixed          Mach number fixed         
  
 xtrf =   1.000 (top)        1.000 (bottom)  
 Mach =   0.000     Re =     0.300 e 6     Ncrit =   9.000
  
   alpha    CL        CD       CDp       CM     Top_Xtr  Bot_Xtr
  ------ -------- --------- --------- -------- -------- --------
 -10.000  -0.6114   0.03015   0.02388  -0.0952   0.8444   0.0232
  -8.000  -0.4529   0.02017   0.01276  -0.0893   0.8183   0.0307
   0.000   0.2745   0.01520   0.00954  -0.0700   0.7520   0.7727
   2.000   0.4801   0.01644   0.01093  -0.0696   0.7359   0.8018
   4.000   0.6950   0.01669   0.01151  -0.0702   0.7113   0.8253
   6.000   0.9345   0.01302   0.00820  -0.0712   0.6546   0.8475
   8.000   0.9733   0.01537   0.00972  -0.0389   0.3489   0.8919
  10.000   0.9877   0.02741   0.02040  -0.0203   0.0709   1.0000
