  
       XFOIL         Version 6.99
  
 Calculated polar for: S813                                            
  
 1 1 Reynolds number fixed          Mach number fixed         
  
 xtrf =   1.000 (top)        1.000 (bottom)  
 Mach =   0.000     Re =     0.300 e 6     Ncrit =   9.000
  
   alpha    CL        CD       CDp       CM     Top_Xtr  Bot_Xtr
  ------ -------- --------- --------- -------- -------- --------
 -10.000  -0.6114   0.03015   0.02388  -0.0952   0.8444   0.0232
  -5.000  -0.2477   0.01204   0.00613  -0.0747   0.7890   0.4366
   0.000   0.2745   0.01520   0.00954  -0.0700   0.7520   0.7727
   5.000   0.8273   0.01450   0.00941  -0.0727   0.6883   0.8357
  10.000   0.9877   0.02741   0.02040  -0.0203   0.0709   1.0000
