  
       XFOIL         Version 6.99
  
 Calculated polar for: S813                                            
  
 1 1 Reynolds number fixed          Mach number fixed         
  
 xtrf =   1.000 (top)        1.000 (bottom)  
 Mach =   0.000     Re =     0.300 e 6     Ncrit =   9.000
  
   alpha    CL        CD       CDp       CM     Top_Xtr  Bot_Xtr
  ------ -------- --------- --------- -------- -------- --------
 -10.000  -0.6114   0.03015   0.02388  -0.0952   0.8444   0.0232
  -9.750  -0.5968   0.02839   0.02184  -0.0939   0.8405   0.0235
  -9.500  -0.5788   0.02688   0.02007  -0.0929   0.8372   0.0240
  -9.250  -0.5615   0.02601   0.01900  -0.0918   0.8334   0.0248
  -9.000  -0.5365   0.02388   0.01672  -0.0920   0.8303   0.0260
  -8.750  -0.5138   0.02263   0.01545  -0.0917   0.8272   0.0272
  -8.500  -0.4928   0.02173   0.01447  -0.0911   0.8243   0.0283
  -8.250  -0.4724   0.02092   0.01357  -0.0903   0.8214   0.0295
  -8.000  -0.4529   0.02017   0.01276  -0.0893   0.8183   0.0307
  -7.750  -0.4330   0.01969   0.01220  -0.0885   0.8153   0.0322
  -7.500  -0.4201   0.01854   0.01105  -0.0867   0.8125   0.0343
  -7.250  -0.4030   0.01794   0.01040  -0.0854   0.8100   0.0364
  -7.000  -0.3847   0.01743   0.00982  -0.0842   0.8078   0.0388
  -6.750  -0.3669   0.01688   0.00921  -0.0830   0.8053   0.0418
  -6.500  -0.3495   0.01629   0.00864  -0.0817   0.8024   0.0475
  -6.250  -0.3318   0.01566   0.00804  -0.0805   0.7996   0.0595
  -6.000  -0.3195   0.01458   0.00737  -0.0786   0.7971   0.1272
  -5.750  -0.3038   0.01376   0.00693  -0.0774   0.7950   0.2092
  -5.500  -0.2857   0.01311   0.00658  -0.0764   0.7932   0.2852
  -5.250  -0.2670   0.01255   0.00632  -0.0755   0.7913   0.3616
  -5.000  -0.2477   0.01204   0.00613  -0.0747   0.7890   0.4365
  -4.750  -0.2278   0.01162   0.00608  -0.0736   0.7866   0.5214
  -4.500  -0.2045   0.01157   0.00627  -0.0728   0.7843   0.5882
  -4.250  -0.1783   0.01175   0.00646  -0.0724   0.7823   0.6280
  -4.000  -0.1512   0.01200   0.00668  -0.0722   0.7806   0.6519
  -3.750  -0.1239   0.01228   0.00687  -0.0720   0.7791   0.6703
  -3.500  -0.0961   0.01256   0.00712  -0.0718   0.7777   0.6823
  -3.250  -0.0690   0.01283   0.00734  -0.0717   0.7762   0.6921
  -3.000  -0.0430   0.01306   0.00752  -0.0715   0.7741   0.7028
  -2.750  -0.0164   0.01333   0.00781  -0.0712   0.7719   0.7098
  -2.500   0.0104   0.01349   0.00792  -0.0712   0.7698   0.7186
  -2.250   0.0374   0.01372   0.00815  -0.0709   0.7680   0.7243
  -2.000   0.0646   0.01386   0.00822  -0.0710   0.7664   0.7325
  -1.750   0.0919   0.01403   0.00839  -0.0708   0.7650   0.7373
  -1.500   0.1195   0.01420   0.00853  -0.0708   0.7637   0.7432
  -1.250   0.1473   0.01432   0.00859  -0.0710   0.7623   0.7495
  -1.000   0.1723   0.01455   0.00885  -0.0706   0.7603   0.7537
  -0.750   0.1968   0.01477   0.00909  -0.0703   0.7580   0.7592
  -0.500   0.2223   0.01492   0.00923  -0.0703   0.7559   0.7647
  -0.250   0.2478   0.01509   0.00942  -0.0700   0.7539   0.7682
   0.000   0.2745   0.01520   0.00954  -0.0700   0.7520   0.7727
   0.250   0.3023   0.01529   0.00959  -0.0704   0.7504   0.7779
   0.500   0.3293   0.01537   0.00969  -0.0704   0.7490   0.7812
   0.750   0.3569   0.01549   0.00982  -0.0704   0.7478   0.7846
   1.000   0.3840   0.01566   0.00999  -0.0706   0.7462   0.7884
   1.250   0.4039   0.01602   0.01040  -0.0700   0.7427   0.7929
   1.500   0.4270   0.01622   0.01065  -0.0695   0.7399   0.7959
   1.750   0.4525   0.01635   0.01082  -0.0694   0.7377   0.7987
   2.000   0.4801   0.01644   0.01093  -0.0696   0.7359   0.8018
   2.250   0.5092   0.01646   0.01097  -0.0701   0.7342   0.8052
   2.500   0.5396   0.01649   0.01099  -0.0709   0.7328   0.8085
   2.750   0.5628   0.01672   0.01128  -0.0704   0.7299   0.8110
   3.000   0.5792   0.01711   0.01178  -0.0689   0.7249   0.8139
   3.250   0.6071   0.01710   0.01181  -0.0691   0.7221   0.8168
   3.500   0.6396   0.01691   0.01164  -0.0700   0.7199   0.8195
   3.750   0.6748   0.01661   0.01133  -0.0713   0.7177   0.8225
   4.000   0.6950   0.01669   0.01151  -0.0702   0.7113   0.8253
   4.250   0.7287   0.01612   0.01096  -0.0709   0.7061   0.8274
   4.500   0.7702   0.01527   0.01007  -0.0727   0.7018   0.8296
   4.750   0.7906   0.01514   0.01006  -0.0714   0.6936   0.8330
   5.000   0.8273   0.01450   0.00941  -0.0727   0.6883   0.8357
   5.250   0.8521   0.01429   0.00928  -0.0722   0.6804   0.8388
   5.500   0.8845   0.01371   0.00873  -0.0727   0.6735   0.8412
   5.750   0.9067   0.01343   0.00856  -0.0714   0.6638   0.8444
   6.000   0.9345   0.01302   0.00820  -0.0712   0.6546   0.8475
   6.250   0.9598   0.01269   0.00792  -0.0706   0.6435   0.8510
   6.500   0.9810   0.01247   0.00780  -0.0693   0.6292   0.8546
   6.750   0.9983   0.01231   0.00776  -0.0672   0.6111   0.8583
   7.000   1.0139   0.01218   0.00767  -0.0648   0.5837   0.8628
   7.250   1.0223   0.01226   0.00754  -0.0610   0.5270   0.8680
   7.500   1.0082   0.01287   0.00779  -0.0533   0.4599   0.8742
   7.750   0.9904   0.01404   0.00863  -0.0457   0.4013   0.8826
   8.000   0.9733   0.01537   0.00972  -0.0389   0.3489   0.8919
   8.250   0.9609   0.01680   0.01095  -0.0334   0.2998   0.9031
   8.500   0.9513   0.01828   0.01226  -0.0287   0.2535   0.9173
   8.750   0.9478   0.01987   0.01365  -0.0255   0.2059   0.9394
   9.000   0.9552   0.02163   0.01516  -0.0251   0.1562   1.0000
   9.250   0.9611   0.02324   0.01654  -0.0238   0.1210   1.0000
   9.500   0.9687   0.02472   0.01786  -0.0226   0.0975   1.0000
   9.750   0.9776   0.02611   0.01915  -0.0214   0.0818   1.0000
  10.000   0.9877   0.02742   0.02040  -0.0203   0.0709   1.0000
