  
       XFOIL         Version 6.99
  
 Calculated polar for: S813                                            
  
 1 1 Reynolds number fixed          Mach number fixed         
  
 xtrf =   1.000 (top)        1.000 (bottom)  
 Mach =   0.000     Re =     0.400 e 6     Ncrit =   9.000
  
   alpha    CL        CD       CDp       CM     Top_Xtr  Bot_Xtr
  ------ -------- --------- --------- -------- -------- --------
 -10.000  -0.6200   0.02669   0.02034  -0.0926   0.8193   0.0188
  -5.000  -0.2436   0.01103   0.00501  -0.0738   0.7689   0.3576
   0.000   0.2979   0.01201   0.00658  -0.0742   0.7363   0.7524
   5.000   0.8612   0.01139   0.00645  -0.0787   0.6712   0.8096
  10.000   1.0071   0.02564   0.01892  -0.0225   0.0571   1.0000
