  
       XFOIL         Version 6.99
  
 Calculated polar for: S813                                            
  
 1 1 Reynolds number fixed          Mach number fixed         
  
 xtrf =   1.000 (top)        1.000 (bottom)  
 Mach =   0.000     Re =     0.400 e 6     Ncrit =   9.000
  
   alpha    CL        CD       CDp       CM     Top_Xtr  Bot_Xtr
  ------ -------- --------- --------- -------- -------- --------
 -10.000  -0.6200   0.02669   0.02034  -0.0926   0.8193   0.0188
  -8.000  -0.4659   0.01865   0.01147  -0.0861   0.7954   0.0252
   0.000   0.2979   0.01201   0.00658  -0.0742   0.7363   0.7524
   2.000   0.5190   0.01280   0.00752  -0.0762   0.7226   0.7794
   4.000   0.7447   0.01237   0.00737  -0.0778   0.6956   0.7992
   6.000   0.9589   0.01070   0.00609  -0.0761   0.6320   0.8207
   8.000   0.9627   0.01599   0.01000  -0.0396   0.2642   0.8580
  10.000   1.0071   0.02564   0.01892  -0.0225   0.0571   1.0000
