  
       XFOIL         Version 6.99
  
 Calculated polar for: S813                                            
  
 1 1 Reynolds number fixed          Mach number fixed         
  
 xtrf =   1.000 (top)        1.000 (bottom)  
 Mach =   0.000     Re =     0.500 e 6     Ncrit =   9.000
  
   alpha    CL        CD       CDp       CM     Top_Xtr  Bot_Xtr
  ------ -------- --------- --------- -------- -------- --------
 -10.000  -0.6143   0.02329   0.01698  -0.0934   0.8031   0.0164
  -5.000  -0.2414   0.01049   0.00439  -0.0733   0.7556   0.2967
   0.000   0.3064   0.01029   0.00507  -0.0758   0.7248   0.7384
   5.000   0.8720   0.00978   0.00501  -0.0807   0.6576   0.7926
  10.000   1.0142   0.02433   0.01777  -0.0223   0.0499   0.9254
