  
       XFOIL         Version 6.99
  
 Calculated polar for: S813                                            
  
 1 1 Reynolds number fixed          Mach number fixed         
  
 xtrf =   1.000 (top)        1.000 (bottom)  
 Mach =   0.000     Re =     0.500 e 6     Ncrit =   9.000
  
   alpha    CL        CD       CDp       CM     Top_Xtr  Bot_Xtr
  ------ -------- --------- --------- -------- -------- --------
 -10.000  -0.6143   0.02329   0.01698  -0.0934   0.8031   0.0164
  -8.000  -0.4837   0.01698   0.01005  -0.0831   0.7800   0.0224
   0.000   0.3064   0.01029   0.00507  -0.0758   0.7248   0.7384
   2.000   0.5342   0.01089   0.00577  -0.0787   0.7127   0.7641
   4.000   0.7611   0.01032   0.00544  -0.0806   0.6826   0.7828
   6.000   0.9698   0.00946   0.00497  -0.0783   0.6130   0.8027
   8.000   0.9607   0.01610   0.00991  -0.0405   0.2092   0.8365
  10.000   1.0142   0.02433   0.01777  -0.0223   0.0499   0.9254
