  
       XFOIL         Version 6.99
  
 Calculated polar for: airfoil                                         
  
 1 1 Reynolds number fixed          Mach number fixed         
  
 xtrf =   1.000 (top)        1.000 (bottom)  
 Mach =   0.000     Re =     0.200 e 6     Ncrit =   9.000
  
   alpha    CL        CD       CDp       CM     Top_Xtr  Bot_Xtr
  ------ -------- --------- --------- -------- -------- --------
   3.000   1.0509   0.02238   0.01599  -0.1885   0.7188   0.3049
  12.000   1.4768   0.05332   0.04472  -0.1171   0.1010   0.3919
   8.000   1.4593   0.02295   0.01536  -0.1585   0.4019   0.3556
