  
       XFOIL         Version 6.99
  
 Calculated polar for: fx84                                            
  
 1 1 Reynolds number fixed          Mach number fixed         
  
 xtrf =   1.000 (top)        1.000 (bottom)  
 Mach =   0.000     Re =     0.200 e 6     Ncrit =   9.000
  
   alpha    CL        CD       CDp       CM     Top_Xtr  Bot_Xtr
  ------ -------- --------- --------- -------- -------- --------
  10.000   1.2428   0.02381   0.01759  -0.0454   0.4404   1.0000
  10.500   1.2681   0.02547   0.01932  -0.0434   0.4268   1.0000
  11.000   1.2963   0.02670   0.02052  -0.0416   0.4111   1.0000
  11.500   1.3226   0.02836   0.02218  -0.0398   0.3951   1.0000
  12.000   1.3420   0.03033   0.02417  -0.0376   0.3794   1.0000
  12.500   1.3615   0.03252   0.02637  -0.0356   0.3632   1.0000
  13.000   1.3770   0.03490   0.02874  -0.0334   0.3455   1.0000
  13.500   1.3836   0.03835   0.03229  -0.0312   0.3287   1.0000
