  
       XFOIL         Version 6.99
  
 Calculated polar for: mdes                                            
  
 1 1 Reynolds number fixed          Mach number fixed         
  
 xtrf =   1.000 (top)        1.000 (bottom)  
 Mach =   0.000     Re =     0.400 e 6     Ncrit =   9.000
  
   alpha    CL        CD       CDp       CM     Top_Xtr  Bot_Xtr
  ------ -------- --------- --------- -------- -------- --------
   0.000   0.3328   0.01171   0.00486  -0.1289   0.6565   0.2828
   2.000   0.5613   0.01175   0.00506  -0.1288   0.6009   0.3364
   4.000   0.7837   0.01207   0.00565  -0.1269   0.5424   0.3939
  12.000   1.2678   0.03184   0.02516  -0.0690   0.0735   0.7081
