  
       XFOIL         Version 6.99
  
 Calculated polar for: S823                                            
  
 1 1 Reynolds number fixed          Mach number fixed         
  
 xtrf =   1.000 (top)        1.000 (bottom)  
 Mach =   0.000     Re =     0.100 e 6     Ncrit =   9.000
  
   alpha    CL        CD       CDp       CM     Top_Xtr  Bot_Xtr
  ------ -------- --------- --------- -------- -------- --------
 -10.000  -0.1766   0.14342   0.13642  -0.0287   1.0000   0.2254
  -5.000  -0.0254   0.10252   0.09625  -0.0552   0.9329   0.2837
   0.000   0.1901   0.03146   0.02350  -0.1100   0.7691   0.3481
   5.000   0.7624   0.03074   0.02405  -0.1090   0.6272   0.5222
  10.000   1.1663   0.02828   0.02275  -0.0714   0.3516   0.7787
