  
       XFOIL         Version 6.99
  
 Calculated polar for: S823                                            
  
 1 1 Reynolds number fixed          Mach number fixed         
  
 xtrf =   1.000 (top)        1.000 (bottom)  
 Mach =   0.000     Re =     0.200 e 6     Ncrit =   9.000
  
   alpha    CL        CD       CDp       CM     Top_Xtr  Bot_Xtr
  ------ -------- --------- --------- -------- -------- --------
 -10.000  -0.8180   0.05052   0.04445  -0.0597   1.0000   0.1626
  -5.000  -0.2652   0.02029   0.01262  -0.1207   0.8769   0.2057
   0.000   0.3273   0.01661   0.00885  -0.1291   0.7144   0.3180
   5.000   0.8809   0.01727   0.01046  -0.1242   0.5636   0.4727
  10.000   1.1967   0.02348   0.01717  -0.0803   0.2490   0.6746
