  
       XFOIL         Version 6.99
  
 Calculated polar for: S823                                            
  
 1 1 Reynolds number fixed          Mach number fixed         
  
 xtrf =   1.000 (top)        1.000 (bottom)  
 Mach =   0.000     Re =     0.300 e 6     Ncrit =   9.000
  
   alpha    CL        CD       CDp       CM     Top_Xtr  Bot_Xtr
  ------ -------- --------- --------- -------- -------- --------
 -10.000  -0.8667   0.03211   0.02585  -0.0818   0.9814   0.1501
  -5.000  -0.2313   0.01579   0.00881  -0.1263   0.8483   0.1926
   0.000   0.3325   0.01328   0.00606  -0.1291   0.6794   0.2960
   5.000   0.8880   0.01397   0.00744  -0.1248   0.5305   0.4436
  10.000   1.2046   0.02210   0.01550  -0.0828   0.1941   0.6305
