  
       XFOIL         Version 6.99
  
 Calculated polar for: S823                                            
  
 1 1 Reynolds number fixed          Mach number fixed         
  
 xtrf =   1.000 (top)        1.000 (bottom)  
 Mach =   0.000     Re =     0.400 e 6     Ncrit =   9.000
  
   alpha    CL        CD       CDp       CM     Top_Xtr  Bot_Xtr
  ------ -------- --------- --------- -------- -------- --------
 -10.000  -0.8376   0.02888   0.02303  -0.0872   0.9762   0.1430
  -5.000  -0.2277   0.01388   0.00726  -0.1271   0.8232   0.1838
   0.000   0.3326   0.01171   0.00486  -0.1289   0.6566   0.2827
   5.000   0.8895   0.01237   0.00609  -0.1249   0.5089   0.4253
  10.000   1.2141   0.02121   0.01446  -0.0847   0.1576   0.6037
