  
       XFOIL         Version 6.99
  
 Calculated polar for: S823                                            
  
 1 1 Reynolds number fixed          Mach number fixed         
  
 xtrf =   1.000 (top)        1.000 (bottom)  
 Mach =   0.000     Re =     0.500 e 6     Ncrit =   9.000
  
   alpha    CL        CD       CDp       CM     Top_Xtr  Bot_Xtr
  ------ -------- --------- --------- -------- -------- --------
 -10.000  -0.8264   0.02654   0.02099  -0.0905   0.9722   0.1379
  -5.000  -0.2290   0.01272   0.00631  -0.1272   0.8039   0.1771
   0.000   0.3333   0.01072   0.00417  -0.1290   0.6405   0.2734
   5.000   0.8918   0.01139   0.00533  -0.1252   0.4929   0.4125
  10.000   1.2248   0.02045   0.01363  -0.0863   0.1325   0.5852
