  
       XFOIL         Version 6.99
  
 Calculated polar for: MDES                                            
  
 1 1 Reynolds number fixed          Mach number fixed         
  
 xtrf =   1.000 (top)        1.000 (bottom)  
 Mach =   0.000     Re =     0.300 e 6     Ncrit =   9.000
  
   alpha    CL        CD       CDp       CM     Top_Xtr  Bot_Xtr
  ------ -------- --------- --------- -------- -------- --------
   0.000   0.2752   0.01519   0.00952  -0.0700   0.7523   0.7727
   1.000   0.3777   0.01587   0.01025  -0.0697   0.7450   0.7886
   2.000   0.4817   0.01640   0.01088  -0.0698   0.7365   0.8018
   3.000   0.5791   0.01713   0.01179  -0.0689   0.7250   0.8139
   4.000   0.6940   0.01675   0.01157  -0.0701   0.7110   0.8254
   5.000   0.8299   0.01447   0.00936  -0.0731   0.6892   0.8353
