  
       XFOIL         Version 6.99
  
 Calculated polar for: MDES,FILT,EXEC                                  
  
 1 1 Reynolds number fixed          Mach number fixed         
  
 xtrf =   1.000 (top)        1.000 (bottom)  
 Mach =   0.000     Re =     0.750 e 6     Ncrit =   9.000
  
   alpha    CL        CD       CDp       CM     Top_Xtr  Bot_Xtr
  ------ -------- --------- --------- -------- -------- --------
   0.000   0.3152   0.00801   0.00315  -0.0773   0.7066   0.7168
