  
       XFOIL         Version 6.99
  
 Calculated polar for: MDES                                            
  
 1 1 Reynolds number fixed          Mach number fixed         
  
 xtrf =   1.000 (top)        1.000 (bottom)  
 Mach =   0.000     Re =     0.500 e 6     Ncrit =   9.000
  
   alpha    CL        CD       CDp       CM     Top_Xtr  Bot_Xtr
  ------ -------- --------- --------- -------- -------- --------
   0.000   0.3064   0.01029   0.00507  -0.0757   0.7248   0.7387
   1.000   0.4218   0.01057   0.00533  -0.0774   0.7195   0.7526
   2.000   0.5336   0.01092   0.00581  -0.0786   0.7126   0.7643
   3.000   0.6490   0.01098   0.00598  -0.0802   0.7046   0.7735
   4.000   0.7606   0.01034   0.00546  -0.0805   0.6825   0.7828
   5.000   0.8713   0.00981   0.00507  -0.0805   0.6580   0.7925
