  
       XFOIL         Version 6.99
  
 Calculated polar for: MDES                                            
  
 1 1 Reynolds number fixed          Mach number fixed         
  
 xtrf =   1.000 (top)        1.000 (bottom)  
 Mach =   0.000     Re =     0.000 e 6     Ncrit =   9.000
  
   alpha    CL        CD       CDp       CM     Top_Xtr  Bot_Xtr
  ------ -------- --------- --------- -------- -------- --------
   0.000   0.3549   0.00000  -0.00031  -0.0857   0.0000   0.0000
   1.000   0.4774   0.00000  -0.00030  -0.0887   0.0000   0.0000
   2.000   0.5998   0.00000  -0.00031  -0.0917   0.0000   0.0000
   3.000   0.7220   0.00000  -0.00032  -0.0947   0.0000   0.0000
   4.000   0.8439   0.00000  -0.00033  -0.0977   0.0000   0.0000
   5.000   0.9656   0.00000  -0.00035  -0.1007   0.0000   0.0000
