  
       XFOIL         Version 6.99
  
 Calculated polar for: G71A2                                           
  
 1 1 Reynolds number fixed          Mach number fixed         
  
 xtrf =   1.000 (top)        1.000 (bottom)  
 Mach =   0.000     Re =     0.200 e 6     Ncrit =   9.000
  
   alpha    CL        CD       CDp       CM     Top_Xtr  Bot_Xtr
  ------ -------- --------- --------- -------- -------- --------
 -13.000  -1.2624   0.03086   0.02366  -0.0175   1.0000   0.1454
 -12.750  -1.2639   0.03051   0.02331  -0.0125   1.0000   0.1501
 -12.500  -1.2672   0.03020   0.02284  -0.0070   1.0000   0.1551
 -12.250  -1.2663   0.02981   0.02244  -0.0022   1.0000   0.1595
 -12.000  -1.2673   0.02964   0.02225   0.0031   1.0000   0.1635
 -11.750  -1.2695   0.02945   0.02194   0.0088   1.0000   0.1676
 -11.500  -1.2676   0.02913   0.02149   0.0136   1.0000   0.1720
 -11.250  -1.2584   0.02887   0.02128   0.0170   1.0000   0.1758
 -11.000  -1.2512   0.02868   0.02105   0.0209   1.0000   0.1799
 -10.750  -1.2438   0.02841   0.02062   0.0248   1.0000   0.1837
 -10.500  -1.2327   0.02803   0.02020   0.0279   1.0000   0.1878
 -10.250  -1.2197   0.02778   0.01998   0.0307   1.0000   0.1914
 -10.000  -1.2075   0.02756   0.01972   0.0336   1.0000   0.1950
  -9.750  -1.1981   0.02737   0.01939   0.0372   1.0000   0.1992
  -9.500  -1.1844   0.02700   0.01891   0.0398   1.0000   0.2024
  -9.250  -1.1664   0.02663   0.01862   0.0416   1.0000   0.2061
  -9.000  -1.1520   0.02644   0.01842   0.0441   1.0000   0.2099
  -8.750  -1.1375   0.02620   0.01810   0.0467   1.0000   0.2135
  -8.500  -1.1241   0.02605   0.01780   0.0494   0.9998   0.2169
  -8.250  -1.0966   0.02579   0.01758   0.0492   0.9985   0.2209
  -8.000  -1.0645   0.02626   0.01810   0.0482   0.9947   0.2259
  -7.750  -1.0408   0.02644   0.01822   0.0489   0.9917   0.2309
  -7.250  -0.9388   0.02716   0.01895   0.0396   0.9647   0.2437
  -7.000  -0.8946   0.02713   0.01884   0.0365   0.9531   0.2497
  -6.750  -0.8482   0.02692   0.01857   0.0328   0.9452   0.2545
  -6.500  -0.8058   0.02657   0.01831   0.0300   0.9372   0.2600
  -6.250  -0.7710   0.02621   0.01793   0.0288   0.9284   0.2655
  -5.750  -0.6884   0.02532   0.01707   0.0237   0.9135   0.2778
  -5.500  -0.6362   0.02498   0.01673   0.0192   0.9083   0.2862
  -5.250  -0.6067   0.02431   0.01609   0.0191   0.8986   0.2931
  -4.750  -0.5263   0.02308   0.01491   0.0150   0.8825   0.3111
  -4.500  -0.4900   0.02231   0.01424   0.0138   0.8727   0.3201
  -4.250  -0.4437   0.02138   0.01335   0.0108   0.8635   0.3319
  -4.000  -0.4163   0.02049   0.01252   0.0116   0.8474   0.3411
  -3.500  -0.3879   0.01883   0.01091   0.0188   0.7494   0.3595
  -3.250  -0.2142   0.01627   0.00753  -0.0088   0.6193   0.3915
  -2.500  -0.1335   0.01634   0.00721  -0.0084   0.5445   0.4316
  -2.250  -0.1044   0.01626   0.00713  -0.0088   0.5335   0.4464
  -2.000  -0.0786   0.01619   0.00708  -0.0085   0.5234   0.4622
  -1.750  -0.0481   0.01616   0.00701  -0.0091   0.5149   0.4815
  -1.500  -0.0248   0.01602   0.00699  -0.0083   0.5081   0.5022
  -1.250  -0.0004   0.01585   0.00695  -0.0076   0.5017   0.5288
  -1.000   0.0287   0.01566   0.00691  -0.0080   0.4961   0.5688
   0.000   0.3735   0.01899   0.01118  -0.0544   0.4674   0.8912
   0.250   0.4159   0.01967   0.01181  -0.0570   0.4626   0.9047
   0.500   0.4637   0.02033   0.01239  -0.0608   0.4577   0.9159
   0.750   0.5350   0.02111   0.01298  -0.0698   0.4522   0.9219
   1.000   0.5850   0.02160   0.01350  -0.0742   0.4484   0.9309
   1.250   0.6324   0.02196   0.01387  -0.0783   0.4443   0.9383
   1.500   0.6852   0.02230   0.01417  -0.0835   0.4398   0.9455
   1.750   0.7348   0.02263   0.01443  -0.0883   0.4352   0.9533
   2.000   0.8102   0.02321   0.01488  -0.0987   0.4305   0.9572
   2.250   0.8449   0.02340   0.01514  -0.1003   0.4275   0.9668
   2.500   0.8934   0.02338   0.01518  -0.1049   0.4234   0.9732
   2.750   0.9423   0.02353   0.01533  -0.1098   0.4195   0.9815
   3.000   0.9959   0.02352   0.01528  -0.1157   0.4153   0.9877
   3.250   1.0635   0.02372   0.01539  -0.1247   0.4111   0.9947
   3.500   1.1090   0.02369   0.01543  -0.1290   0.4076   1.0000
   3.750   1.1227   0.02386   0.01569  -0.1265   0.4048   1.0000
   4.000   1.1390   0.02408   0.01598  -0.1246   0.4019   1.0000
   4.250   1.1564   0.02429   0.01623  -0.1229   0.3987   1.0000
   4.500   1.1777   0.02455   0.01651  -0.1221   0.3958   1.0000
   4.750   1.2029   0.02487   0.01683  -0.1221   0.3933   1.0000
   5.000   1.2375   0.02545   0.01736  -0.1241   0.3903   1.0000
   5.250   1.2516   0.02580   0.01781  -0.1218   0.3875   1.0000
   5.500   1.2572   0.02593   0.01807  -0.1175   0.3840   1.0000
   5.750   1.2649   0.02607   0.01830  -0.1137   0.3802   1.0000
   6.000   1.2748   0.02609   0.01832  -0.1103   0.3760   1.0000
   6.250   1.2962   0.02619   0.01832  -0.1094   0.3716   1.0000
   6.500   1.3089   0.02647   0.01865  -0.1067   0.3675   1.0000
   6.750   1.3054   0.02652   0.01884  -0.1006   0.3639   1.0000
   7.000   1.3056   0.02656   0.01897  -0.0952   0.3602   1.0000
   7.250   1.3122   0.02658   0.01901  -0.0911   0.3567   1.0000
   7.500   1.3267   0.02652   0.01889  -0.0887   0.3527   1.0000
   7.750   1.3460   0.02684   0.01921  -0.0875   0.3491   1.0000
   8.000   1.3336   0.02683   0.01938  -0.0796   0.3457   1.0000
   8.250   1.3314   0.02691   0.01957  -0.0739   0.3420   1.0000
   8.500   1.3352   0.02692   0.01962  -0.0694   0.3382   1.0000
   8.750   1.3456   0.02690   0.01960  -0.0662   0.3349   1.0000
   9.000   1.3571   0.02694   0.01960  -0.0633   0.3308   1.0000
   9.250   1.3456   0.02708   0.01993  -0.0560   0.3268   1.0000
   9.500   1.3428   0.02715   0.02010  -0.0503   0.3224   1.0000
   9.750   1.3471   0.02717   0.02015  -0.0461   0.3185   1.0000
  10.000   1.3553   0.02709   0.02001  -0.0427   0.3143   1.0000
  10.250   1.3471   0.02739   0.02049  -0.0363   0.3095   1.0000
  10.500   1.3442   0.02758   0.02078  -0.0310   0.3043   1.0000
  10.750   1.3440   0.02762   0.02081  -0.0262   0.2989   1.0000
  11.000   1.3436   0.02795   0.02124  -0.0216   0.2934   1.0000
  11.250   1.3406   0.02833   0.02175  -0.0166   0.2867   1.0000
  11.500   1.3389   0.02862   0.02200  -0.0119   0.2796   1.0000
  11.750   1.3360   0.02921   0.02276  -0.0073   0.2707   1.0000
  12.000   1.3321   0.02982   0.02340  -0.0026   0.2607   1.0000
  12.250   1.3252   0.03066   0.02424   0.0022   0.2483   1.0000
  12.500   1.3149   0.03185   0.02546   0.0073   0.2289   1.0000
  12.750   1.2966   0.03362   0.02715   0.0129   0.2038   1.0000
  13.000   1.2700   0.03621   0.02960   0.0187   0.1754   1.0000
