  
       XFOIL         Version 6.99
  
 Calculated polar for: NACA4421                                        
  
 1 1 Reynolds number fixed          Mach number fixed         
  
 xtrf =   1.000 (top)        1.000 (bottom)  
 Mach =   0.000     Re =     0.100 e 6     Ncrit =   9.000
  
   alpha    CL        CD       CDp       CM     Top_Xtr  Bot_Xtr
  ------ -------- --------- --------- -------- -------- --------
 -10.000  -0.3746   0.11356   0.10827  -0.0363   0.9923   0.1933
  -5.000  -0.2901   0.03290   0.02379  -0.0708   0.8254   0.2775
   0.000   0.3377   0.02508   0.01754  -0.0755   0.6972   0.7180
   5.000   0.9044   0.03012   0.02204  -0.0783   0.5603   1.0000
  10.000   1.2468   0.03897   0.03075  -0.0467   0.4158   1.0000
