  
       XFOIL         Version 6.99
  
 Calculated polar for: NACA4421                                        
  
 1 1 Reynolds number fixed          Mach number fixed         
  
 xtrf =   1.000 (top)        1.000 (bottom)  
 Mach =   0.000     Re =     0.200 e 6     Ncrit =   9.000
  
   alpha    CL        CD       CDp       CM     Top_Xtr  Bot_Xtr
  ------ -------- --------- --------- -------- -------- --------
 -10.000  -0.7072   0.02764   0.01986  -0.0866   0.9223   0.1350
  -5.000  -0.0724   0.01751   0.00952  -0.1006   0.8168   0.2537
   0.000   0.4493   0.01429   0.00717  -0.0903   0.6406   0.6360
   5.000   1.0574   0.01766   0.01049  -0.0991   0.5047   1.0000
  10.000   1.3409   0.02373   0.01638  -0.0537   0.3697   1.0000
