  
       XFOIL         Version 6.99
  
 Calculated polar for: NACA4421                                        
  
 1 1 Reynolds number fixed          Mach number fixed         
  
 xtrf =   1.000 (top)        1.000 (bottom)  
 Mach =   0.000     Re =     0.300 e 6     Ncrit =   9.000
  
   alpha    CL        CD       CDp       CM     Top_Xtr  Bot_Xtr
  ------ -------- --------- --------- -------- -------- --------
 -10.000  -0.5963   0.02073   0.01373  -0.1062   0.9217   0.1285
  -5.000  -0.0605   0.01388   0.00658  -0.1010   0.7877   0.2335
   0.000   0.4557   0.01204   0.00512  -0.0908   0.6065   0.5671
   5.000   1.0439   0.01471   0.00829  -0.0958   0.4769   1.0000
  10.000   1.3260   0.02121   0.01461  -0.0514   0.3448   1.0000
