  
       XFOIL         Version 6.99
  
 Calculated polar for: NACA4421                                        
  
 1 1 Reynolds number fixed          Mach number fixed         
  
 xtrf =   1.000 (top)        1.000 (bottom)  
 Mach =   0.000     Re =     0.400 e 6     Ncrit =   9.000
  
   alpha    CL        CD       CDp       CM     Top_Xtr  Bot_Xtr
  ------ -------- --------- --------- -------- -------- --------
 -10.000  -0.5682   0.01743   0.01086  -0.1109   0.9165   0.1223
  -5.000  -0.0609   0.01220   0.00526  -0.1003   0.7667   0.2195
   0.000   0.4549   0.01096   0.00425  -0.0903   0.5840   0.5174
   5.000   1.0315   0.01322   0.00729  -0.0931   0.4603   1.0000
  10.000   1.3290   0.01995   0.01378  -0.0521   0.3266   1.0000
