  
       XFOIL         Version 6.99
  
 Calculated polar for: NACA4421                                        
  
 1 1 Reynolds number fixed          Mach number fixed         
  
 xtrf =   1.000 (top)        1.000 (bottom)  
 Mach =   0.000     Re =     0.500 e 6     Ncrit =   9.000
  
   alpha    CL        CD       CDp       CM     Top_Xtr  Bot_Xtr
  ------ -------- --------- --------- -------- -------- --------
 -10.000  -0.5751   0.01561   0.00931  -0.1093   0.9046   0.1166
  -9.900  -0.5658   0.01545   0.00915  -0.1090   0.9021   0.1178
  -9.800  -0.5558   0.01531   0.00901  -0.1088   0.8999   0.1191
  -9.700  -0.5449   0.01519   0.00888  -0.1088   0.8980   0.1203
  -9.600  -0.5336   0.01509   0.00875  -0.1088   0.8960   0.1217
  -9.500  -0.5250   0.01502   0.00867  -0.1083   0.8928   0.1228
  -9.400  -0.5154   0.01495   0.00858  -0.1080   0.8897   0.1240
  -9.300  -0.5051   0.01489   0.00848  -0.1078   0.8868   0.1249
  -9.200  -0.4965   0.01468   0.00828  -0.1074   0.8841   0.1264
  -9.100  -0.4868   0.01452   0.00813  -0.1071   0.8816   0.1277
  -9.000  -0.4762   0.01439   0.00799  -0.1070   0.8793   0.1289
  -8.900  -0.4651   0.01428   0.00787  -0.1070   0.8770   0.1302
  -8.800  -0.4560   0.01421   0.00779  -0.1066   0.8738   0.1314
  -8.700  -0.4463   0.01414   0.00771  -0.1063   0.8706   0.1327
  -8.600  -0.4361   0.01406   0.00761  -0.1061   0.8676   0.1339
  -8.500  -0.4255   0.01400   0.00751  -0.1059   0.8647   0.1350
  -8.400  -0.4149   0.01389   0.00738  -0.1058   0.8621   0.1361
  -8.300  -0.4049   0.01371   0.00720  -0.1056   0.8595   0.1376
  -8.200  -0.3947   0.01359   0.00708  -0.1055   0.8569   0.1390
  -8.100  -0.3855   0.01349   0.00700  -0.1051   0.8536   0.1403
  -8.000  -0.3757   0.01341   0.00691  -0.1048   0.8502   0.1416
  -7.900  -0.3655   0.01333   0.00682  -0.1046   0.8471   0.1430
  -7.800  -0.3547   0.01325   0.00672  -0.1045   0.8441   0.1443
  -7.700  -0.3436   0.01319   0.00662  -0.1044   0.8414   0.1456
  -7.600  -0.3321   0.01314   0.00652  -0.1044   0.8388   0.1468
  -7.500  -0.3225   0.01301   0.00640  -0.1041   0.8357   0.1482
  -7.400  -0.3134   0.01288   0.00629  -0.1038   0.8323   0.1499
  -7.300  -0.3037   0.01278   0.00620  -0.1035   0.8288   0.1514
  -7.200  -0.2935   0.01269   0.00610  -0.1033   0.8255   0.1529
  -7.100  -0.2828   0.01261   0.00601  -0.1032   0.8224   0.1546
  -7.000  -0.2716   0.01254   0.00591  -0.1031   0.8195   0.1562
  -6.900  -0.2607   0.01249   0.00583  -0.1030   0.8165   0.1577
  -6.800  -0.2505   0.01244   0.00577  -0.1028   0.8132   0.1591
  -6.700  -0.2408   0.01233   0.00567  -0.1025   0.8097   0.1610
  -6.600  -0.2310   0.01222   0.00557  -0.1022   0.8063   0.1630
  -6.500  -0.2206   0.01213   0.00548  -0.1021   0.8030   0.1650
  -6.400  -0.2098   0.01206   0.00539  -0.1020   0.7999   0.1671
  -6.300  -0.1988   0.01200   0.00531  -0.1019   0.7968   0.1692
  -6.200  -0.1886   0.01195   0.00526  -0.1016   0.7933   0.1712
  -6.000  -0.1685   0.01178   0.00510  -0.1012   0.7859   0.1762
  -5.900  -0.1582   0.01170   0.00503  -0.1010   0.7823   0.1791
  -5.800  -0.1474   0.01165   0.00496  -0.1009   0.7790   0.1821
  -5.700  -0.1365   0.01161   0.00490  -0.1008   0.7758   0.1850
  -5.600  -0.1262   0.01155   0.00485  -0.1006   0.7722   0.1878
  -5.500  -0.1163   0.01146   0.00478  -0.1003   0.7684   0.1913
  -5.400  -0.1060   0.01139   0.00473  -0.1001   0.7647   0.1946
  -5.300  -0.0953   0.01135   0.00467  -0.1000   0.7612   0.1982
  -5.200  -0.0842   0.01133   0.00461  -0.0999   0.7578   0.2015
  -5.100  -0.0739   0.01126   0.00455  -0.0997   0.7543   0.2051
  -5.000  -0.0638   0.01119   0.00452  -0.0995   0.7504   0.2090
  -4.900  -0.0533   0.01115   0.00448  -0.0993   0.7464   0.2130
  -4.800  -0.0425   0.01113   0.00444  -0.0992   0.7424   0.2169
  -4.700  -0.0319   0.01109   0.00438  -0.0990   0.7386   0.2208
  -4.600  -0.0214   0.01105   0.00434  -0.0988   0.7350   0.2249
  -4.500  -0.0111   0.01101   0.00432  -0.0986   0.7311   0.2291
  -4.400  -0.0004   0.01099   0.00429  -0.0985   0.7270   0.2329
  -4.300   0.0106   0.01099   0.00426  -0.0984   0.7229   0.2360
  -4.200   0.0207   0.01092   0.00420  -0.0981   0.7191   0.2401
  -4.100   0.0312   0.01089   0.00416  -0.0980   0.7155   0.2439
  -4.000   0.0417   0.01086   0.00413  -0.0978   0.7118   0.2476
  -3.900   0.0524   0.01085   0.00411  -0.0977   0.7077   0.2510
  -3.800   0.0633   0.01085   0.00409  -0.0975   0.7036   0.2538
  -3.700   0.0735   0.01081   0.00404  -0.0973   0.6995   0.2575
  -3.600   0.0837   0.01077   0.00400  -0.0971   0.6957   0.2612
  -3.500   0.0941   0.01075   0.00397  -0.0969   0.6918   0.2647
  -3.400   0.1046   0.01072   0.00395  -0.0967   0.6877   0.2682
  -3.300   0.1152   0.01071   0.00392  -0.0966   0.6834   0.2714
  -3.200   0.1260   0.01073   0.00390  -0.0964   0.6792   0.2739
  -3.100   0.1360   0.01069   0.00385  -0.0962   0.6752   0.2778
  -3.000   0.1462   0.01066   0.00383  -0.0959   0.6714   0.2814
  -2.900   0.1566   0.01062   0.00381  -0.0958   0.6674   0.2848
  -2.800   0.1670   0.01060   0.00379  -0.0956   0.6634   0.2882
  -2.700   0.1776   0.01061   0.00377  -0.0954   0.6594   0.2914
  -2.600   0.1882   0.01063   0.00375  -0.0952   0.6555   0.2941
  -2.500   0.1983   0.01060   0.00372  -0.0950   0.6519   0.2982
  -2.400   0.2086   0.01056   0.00371  -0.0948   0.6483   0.3021
  -2.300   0.2190   0.01053   0.00370  -0.0946   0.6444   0.3061
  -2.200   0.2294   0.01053   0.00368  -0.0944   0.6405   0.3101
  -2.100   0.2399   0.01054   0.00367  -0.0942   0.6367   0.3138
  -2.000   0.2500   0.01054   0.00365  -0.0940   0.6329   0.3182
  -1.900   0.2602   0.01051   0.00365  -0.0938   0.6295   0.3232
  -1.800   0.2706   0.01049   0.00364  -0.0936   0.6258   0.3283
  -1.700   0.2810   0.01048   0.00364  -0.0934   0.6219   0.3333
  -1.600   0.2913   0.01048   0.00363  -0.0932   0.6182   0.3383
  -1.500   0.3013   0.01046   0.00362  -0.0930   0.6147   0.3443
  -1.400   0.3114   0.01048   0.00362  -0.0928   0.6112   0.3507
  -1.300   0.3221   0.01047   0.00362  -0.0926   0.6082   0.3570
  -1.200   0.3323   0.01043   0.00362  -0.0924   0.6049   0.3640
  -1.100   0.3426   0.01041   0.00363  -0.0922   0.6016   0.3721
  -1.000   0.3530   0.01041   0.00363  -0.0921   0.5982   0.3799
  -0.900   0.3629   0.01039   0.00363  -0.0918   0.5950   0.3886
  -0.800   0.3729   0.01041   0.00364  -0.0916   0.5918   0.3980
  -0.700   0.3832   0.01040   0.00365  -0.0914   0.5889   0.4071
  -0.600   0.3935   0.01036   0.00366  -0.0912   0.5859   0.4173
  -0.400   0.4139   0.01033   0.00368  -0.0908   0.5795   0.4373
  -0.300   0.4241   0.01033   0.00369  -0.0906   0.5764   0.4477
  -0.200   0.4339   0.01033   0.00371  -0.0903   0.5734   0.4583
  -0.100   0.4440   0.01035   0.00373  -0.0901   0.5705   0.4696
  -0.000   0.4542   0.01033   0.00375  -0.0899   0.5679   0.4809
   0.100   0.4645   0.01030   0.00377  -0.0897   0.5651   0.4933
   0.200   0.4744   0.01027   0.00379  -0.0894   0.5620   0.5054
   0.300   0.4844   0.01027   0.00381  -0.0892   0.5588   0.5185
   0.400   0.4940   0.01025   0.00383  -0.0889   0.5557   0.5317
   0.600   0.5134   0.01028   0.00389  -0.0882   0.5495   0.5598
   0.700   0.5234   0.01025   0.00392  -0.0880   0.5469   0.5743
   0.800   0.5334   0.01023   0.00395  -0.0877   0.5442   0.5901
   0.900   0.5432   0.01020   0.00399  -0.0874   0.5415   0.6058
   1.000   0.5530   0.01020   0.00403  -0.0871   0.5388   0.6208
   1.100   0.5629   0.01020   0.00406  -0.0868   0.5361   0.6360
   1.200   0.5725   0.01021   0.00410  -0.0865   0.5336   0.6495
   1.300   0.5824   0.01025   0.00414  -0.0862   0.5310   0.6629
   1.400   0.5924   0.01028   0.00419  -0.0860   0.5284   0.6754
   1.500   0.6026   0.01028   0.00423  -0.0857   0.5263   0.6876
   1.600   0.6125   0.01026   0.00428  -0.0854   0.5241   0.6992
   1.700   0.6226   0.01027   0.00431  -0.0852   0.5217   0.7108
   1.800   0.6324   0.01027   0.00436  -0.0849   0.5192   0.7215
   1.900   0.6423   0.01029   0.00439  -0.0846   0.5169   0.7327
   2.000   0.6520   0.01032   0.00444  -0.0843   0.5146   0.7430
   2.100   0.6616   0.01035   0.00448  -0.0839   0.5123   0.7542
   2.200   0.6715   0.01040   0.00454  -0.0836   0.5099   0.7648
   2.300   0.6813   0.01043   0.00460  -0.0833   0.5077   0.7765
   2.400   0.6910   0.01043   0.00465  -0.0830   0.5057   0.7882
   2.500   0.7005   0.01043   0.00470  -0.0826   0.5036   0.8004
   2.600   0.7101   0.01044   0.00475  -0.0822   0.5014   0.8125
   2.700   0.7193   0.01045   0.00481  -0.0817   0.4991   0.8250
   2.800   0.7286   0.01048   0.00486  -0.0813   0.4970   0.8373
   2.900   0.7375   0.01052   0.00492  -0.0807   0.4948   0.8499
   3.000   0.7466   0.01057   0.00499  -0.0802   0.4927   0.8618
   3.100   0.7555   0.01063   0.00506  -0.0797   0.4906   0.8742
   3.200   0.7649   0.01072   0.00514  -0.0793   0.4882   0.8856
   3.300   0.7737   0.01074   0.00520  -0.0787   0.4865   0.8979
   3.400   0.7828   0.01077   0.00527  -0.0782   0.4846   0.9088
   3.500   0.7918   0.01081   0.00533  -0.0776   0.4825   0.9203
   3.600   0.8016   0.01086   0.00540  -0.0772   0.4803   0.9300
   3.700   0.8113   0.01092   0.00547  -0.0769   0.4782   0.9402
   3.800   0.8228   0.01100   0.00554  -0.0769   0.4761   0.9481
   3.900   0.8345   0.01108   0.00561  -0.0770   0.4739   0.9562
   4.000   0.8470   0.01119   0.00569  -0.0773   0.4718   0.9630
   4.100   0.8621   0.01132   0.00578  -0.0782   0.4693   0.9683
   4.200   0.8756   0.01141   0.00587  -0.0787   0.4672   0.9747
   4.300   0.8909   0.01148   0.00596  -0.0796   0.4652   0.9792
   4.400   0.9073   0.01156   0.00604  -0.0807   0.4629   0.9830
   4.500   0.9233   0.01165   0.00613  -0.0818   0.4605   0.9870
   4.600   0.9394   0.01175   0.00622  -0.0829   0.4581   0.9906
   4.700   0.9571   0.01186   0.00631  -0.0843   0.4558   0.9926
   4.800   0.9748   0.01197   0.00640  -0.0858   0.4534   0.9945
   4.900   0.9920   0.01211   0.00650  -0.0872   0.4509   0.9966
   5.000   1.0091   0.01224   0.00660  -0.0885   0.4483   0.9986
   5.100   1.0215   0.01229   0.00667  -0.0889   0.4464   1.0000
   5.200   1.0214   0.01228   0.00667  -0.0867   0.4447   1.0000
   5.300   1.0229   0.01228   0.00668  -0.0848   0.4429   1.0000
   5.400   1.0257   0.01230   0.00670  -0.0832   0.4410   1.0000
   5.500   1.0292   0.01233   0.00672  -0.0817   0.4390   1.0000
   5.600   1.0332   0.01238   0.00675  -0.0804   0.4369   1.0000
   5.700   1.0378   0.01244   0.00680  -0.0791   0.4348   1.0000
   5.800   1.0428   0.01252   0.00685  -0.0780   0.4324   1.0000
   5.900   1.0490   0.01263   0.00692  -0.0771   0.4298   1.0000
   6.000   1.0554   0.01268   0.00699  -0.0762   0.4277   1.0000
   6.100   1.0621   0.01273   0.00705  -0.0754   0.4253   1.0000
   6.200   1.0690   0.01279   0.00712  -0.0747   0.4225   1.0000
   6.300   1.0757   0.01287   0.00719  -0.0739   0.4196   1.0000
   6.400   1.0823   0.01297   0.00727  -0.0731   0.4167   1.0000
   6.500   1.0887   0.01308   0.00736  -0.0723   0.4138   1.0000
   6.600   1.0952   0.01323   0.00746  -0.0715   0.4109   1.0000
   6.700   1.1032   0.01330   0.00755  -0.0710   0.4084   1.0000
   6.800   1.1113   0.01337   0.00764  -0.0705   0.4057   1.0000
   6.900   1.1190   0.01347   0.00774  -0.0700   0.4027   1.0000
   7.000   1.1265   0.01358   0.00784  -0.0694   0.4000   1.0000
   7.100   1.1338   0.01370   0.00795  -0.0688   0.3974   1.0000
   7.200   1.1408   0.01384   0.00807  -0.0681   0.3948   1.0000
   7.300   1.1476   0.01401   0.00820  -0.0675   0.3921   1.0000
   7.400   1.1562   0.01410   0.00831  -0.0671   0.3898   1.0000
   7.500   1.1648   0.01419   0.00842  -0.0668   0.3873   1.0000
   7.600   1.1728   0.01431   0.00854  -0.0663   0.3846   1.0000
   7.700   1.1804   0.01444   0.00867  -0.0658   0.3818   1.0000
   7.800   1.1875   0.01459   0.00881  -0.0652   0.3790   1.0000
   7.900   1.1942   0.01476   0.00896  -0.0646   0.3763   1.0000
   8.000   1.2005   0.01496   0.00912  -0.0639   0.3735   1.0000
   8.100   1.2093   0.01506   0.00925  -0.0636   0.3709   1.0000
   8.200   1.2175   0.01519   0.00939  -0.0632   0.3681   1.0000
   8.300   1.2251   0.01534   0.00954  -0.0627   0.3650   1.0000
   8.400   1.2320   0.01551   0.00971  -0.0622   0.3619   1.0000
   8.500   1.2384   0.01571   0.00989  -0.0615   0.3590   1.0000
   8.600   1.2443   0.01594   0.01009  -0.0608   0.3561   1.0000
   8.700   1.2523   0.01609   0.01025  -0.0605   0.3534   1.0000
   8.800   1.2604   0.01623   0.01041  -0.0601   0.3505   1.0000
   8.900   1.2677   0.01641   0.01059  -0.0596   0.3473   1.0000
   9.000   1.2742   0.01662   0.01079  -0.0590   0.3441   1.0000
   9.100   1.2800   0.01687   0.01102  -0.0584   0.3409   1.0000
   9.200   1.2851   0.01715   0.01127  -0.0576   0.3378   1.0000
   9.300   1.2934   0.01730   0.01144  -0.0573   0.3349   1.0000
   9.400   1.3008   0.01749   0.01164  -0.0569   0.3316   1.0000
   9.500   1.3073   0.01772   0.01187  -0.0564   0.3282   1.0000
   9.600   1.3128   0.01800   0.01212  -0.0557   0.3248   1.0000
   9.700   1.3176   0.01831   0.01241  -0.0550   0.3217   1.0000
   9.800   1.3242   0.01855   0.01266  -0.0545   0.3187   1.0000
   9.900   1.3316   0.01876   0.01288  -0.0541   0.3156   1.0000
  10.000   1.3381   0.01901   0.01313  -0.0536   0.3124   1.0000
  10.100   1.3436   0.01930   0.01341  -0.0530   0.3091   1.0000
