  
       XFOIL         Version 6.99
  
 Calculated polar for: NACA4421                                        
  
 1 1 Reynolds number fixed          Mach number fixed         
  
 xtrf =   1.000 (top)        1.000 (bottom)  
 Mach =   0.000     Re =     0.500 e 6     Ncrit =   9.000
  
   alpha    CL        CD       CDp       CM     Top_Xtr  Bot_Xtr
  ------ -------- --------- --------- -------- -------- --------
 -10.000  -0.5751   0.01561   0.00931  -0.1093   0.9046   0.1166
  -5.000  -0.0638   0.01119   0.00452  -0.0995   0.7504   0.2090
   0.000   0.4542   0.01033   0.00375  -0.0899   0.5679   0.4809
   5.000   1.0091   0.01224   0.00660  -0.0885   0.4483   0.9985
  10.000   1.3381   0.01901   0.01313  -0.0536   0.3124   1.0000
